
Note: No compatibility mode selected!


Circuit: * reconstructed radiostorage shema-1804-6 single-supply bjt audio amplifier

Doing analysis at TEMP = 27.000000 and TNOM = 27.000000

Using SPARSE 1.3 as Direct Linear Solver

No. of Data Rows : 1
v(b_in) = 6.508839e-01
v(drive) = 5.305781e+00
v(b_top) = 6.617533e+00
v(out) = 5.959003e+00
v(load) = 0.000000e+00
i(vcc) = -1.24006e-02
@q1[ic] = 1.602110e-03
@q2[ic] = 1.012957e-02
@q3[ic] = -1.01316e-02
Doing analysis at TEMP = 27.000000 and TNOM = 27.000000

Using SPARSE 1.3 as Direct Linear Solver

No. of Data Rows : 369
Doing analysis at TEMP = 27.000000 and TNOM = 27.000000

Using SPARSE 1.3 as Direct Linear Solver

Initial Transient Solution
--------------------------

Node                                   Voltage
----                                   -------
vcc                                         12
vin                                          0
b_in                                  0.650884
drive                                  5.30578
b_top                                  6.61753
d_mid                                  5.96166
out                                      5.959
load                                         0
vin#branch                                   0
vcc#branch                          -0.0124006


No. of Data Rows : 4001
ngspice-46 done
