
Note: No compatibility mode selected!


Circuit: * reconstructed radiostorage shema-1804-6 single-supply bjt audio amplifier

Doing analysis at TEMP = 27.000000 and TNOM = 27.000000

Using SPARSE 1.3 as Direct Linear Solver

No. of Data Rows : 1
v(b_in) = 8.815362e-01
v(e_vt1) = 2.217605e-01
v(drive) = 5.410956e+00
v(b_top) = 6.719616e+00
v(out) = 6.062433e+00
v(load) = 0.000000e+00
i(vcc) = -1.18243e-02
@q1[ic] = 2.195527e-03
@q2[ic] = 9.624230e-03
@q3[ic] = -9.51864e-03
Doing analysis at TEMP = 27.000000 and TNOM = 27.000000

Using SPARSE 1.3 as Direct Linear Solver

No. of Data Rows : 369
Doing analysis at TEMP = 27.000000 and TNOM = 27.000000

Using SPARSE 1.3 as Direct Linear Solver

Initial Transient Solution
--------------------------

Node                                   Voltage
----                                   -------
vcc                                         12
vin                                          0
b_in                                  0.881536
out                                    6.06243
drive                                  5.41096
e_vt1                                  0.22176
b_top                                  6.71962
d_mid                                  6.06529
load                                         0
vin#branch                                   0
vcc#branch                          -0.0118243


No. of Data Rows : 4001
ngspice-46 done
