
Note: No compatibility mode selected!


Circuit: * reconstructed radiostorage shema-1804-6 single-supply bjt audio amplifier

Doing analysis at TEMP = 27.000000 and TNOM = 27.000000

Using SPARSE 1.3 as Direct Linear Solver

No. of Data Rows : 1
v(b_in) = 6.801206e-01
v(drive) = 7.628475e-01
v(b_top) = 2.132588e+00
v(out) = 1.446999e+00
v(load) = 0.000000e+00
i(vcc) = -3.23563e-02
@q1[ic] = 4.178311e-03
@q2[ic] = 2.824491e-02
@q3[ic] = -2.80652e-02
Doing analysis at TEMP = 27.000000 and TNOM = 27.000000

Using SPARSE 1.3 as Direct Linear Solver

No. of Data Rows : 369
Doing analysis at TEMP = 27.000000 and TNOM = 27.000000

Using SPARSE 1.3 as Direct Linear Solver

Initial Transient Solution
--------------------------

Node                                   Voltage
----                                   -------
vcc                                         12
vin                                          0
b_in                                  0.680121
out                                      1.447
drive                                 0.762848
b_top                                  2.13259
d_mid                                  1.44772
load                                         0
vin#branch                                   0
vcc#branch                          -0.0323563


No. of Data Rows : 4001
ngspice-46 done
