
Note: No compatibility mode selected!


Circuit: * bootstrapped radiostorage shema-1804-6 single-supply bjt audio amplifier

Doing analysis at TEMP = 27.000000 and TNOM = 27.000000

Using SPARSE 1.3 as Direct Linear Solver

No. of Data Rows : 1
v(b_in) = 6.806259e-01
v(drive) = 7.680663e-01
v(b_top) = 2.139386e+00
v(boot) = 9.660193e+00
v(out) = 1.453016e+00
v(load) = 0.000000e+00
i(vcc) = -3.31865e-02
@q1[ic] = 4.246939e-03
@q2[ic] = 2.900824e-02
@q3[ic] = -2.88259e-02
Doing analysis at TEMP = 27.000000 and TNOM = 27.000000

Using SPARSE 1.3 as Direct Linear Solver

No. of Data Rows : 369
Doing analysis at TEMP = 27.000000 and TNOM = 27.000000

Using SPARSE 1.3 as Direct Linear Solver

Initial Transient Solution
--------------------------

Node                                   Voltage
----                                   -------
vcc                                         12
vin                                          0
b_in                                  0.680626
out                                    1.45302
drive                                 0.768066
boot                                   9.66019
b_top                                  2.13939
d_mid                                  1.45373
load                                         0
vin#branch                                   0
vcc#branch                          -0.0331865


No. of Data Rows : 4001
ngspice-46 done
