
Note: No compatibility mode selected!


Circuit: * bootstrapped radiostorage shema-1804-6 single-supply bjt audio amplifier

Doing analysis at TEMP = 27.000000 and TNOM = 27.000000

Using SPARSE 1.3 as Direct Linear Solver

No. of Data Rows : 1
v(b_in) = 8.843763e-01
v(e_vt1) = 2.242847e-01
v(drive) = 5.438389e+00
v(b_top) = 6.748135e+00
v(boot) = 1.075379e+01
v(out) = 6.090402e+00
v(load) = 0.000000e+00
i(vcc) = -1.20434e-02
@q1[ic] = 2.220519e-03
@q2[ic] = 9.818081e-03
@q3[ic] = -9.71216e-03
Doing analysis at TEMP = 27.000000 and TNOM = 27.000000

Using SPARSE 1.3 as Direct Linear Solver

No. of Data Rows : 369
Doing analysis at TEMP = 27.000000 and TNOM = 27.000000

Using SPARSE 1.3 as Direct Linear Solver

Initial Transient Solution
--------------------------

Node                                   Voltage
----                                   -------
vcc                                         12
vin                                          0
b_in                                  0.884376
out                                     6.0904
drive                                  5.43839
e_vt1                                 0.224285
boot                                   10.7538
b_top                                  6.74813
d_mid                                  6.09326
load                                         0
vin#branch                                   0
vcc#branch                          -0.0120434


No. of Data Rows : 4002
ngspice-46 done
